/*--------------------------------*- C++ -*----------------------------------*\
| =========                 |                                                 |
| \\      /  F ield         | OpenFOAM: The Open Source CFD Toolbox           |
|  \\    /   O peration     | Version:  2.1.1                                 |
|   \\  /    A nd           | Web:      www.OpenFOAM.org                      |
|    \\/     M anipulation  |                                                 |
\*---------------------------------------------------------------------------*/
FoamFile
{
    version     2.0;
    format      ascii;
    class       dictionary;
    object      blockMeshDict;
}
// * * * * * * * * * * * * * * * * * * * * * * * * * * * * * * * * * * * * * //

convertToMeters 1;

vertices
(
//    (0.0               0.0                -75)    // point 0 (v1)
//    (9.29964624344644  0.0811156381496341 -75)    // point 1 (v2)
//    (9.29964624344644  0.0811156381496341  75)    // point 2 (v3)
//    (0.0               0.0                 75)    // point 3 (v4)
//    (9.29964624344644 -0.0811156381496341 -75)    // point 4 (v5)
//    (9.29964624344644 -0.0811156381496341  75)    // point 5 (v6)

//    (0.0           0.0             -75)    // point 0 (v1)
//    (3.0998820115  0.0270385460467 -75)    // point 1 (v2)
//    (3.0998820115  0.0270385460467  75)    // point 2 (v3)
//    (0.0           0.0              75)    // point 3 (v4)
//    (3.0998820115 -0.0270385460467 -75)    // point 4 (v5)
//    (3.0998820115 -0.0270385460467  75)    // point 5 (v6)

    (0.0            0.0             -25)    // point 0 (v1)
    (5.16647013525  0.0450642434165 -25)    // point 1 (v2)
    (5.16647013525  0.0450642434165  25)    // point 2 (v3)
    (0.0            0.0              25)    // point 3 (v4)
    (5.16647013525 -0.0450642434165 -25)    // point 4 (v5)
    (5.16647013525 -0.0450642434165  25)    // point 5 (v6)
);

blocks
(
    // 5 radiuses per x-direction
    // hex (0 1 2 3 0 4 5 3) ( 150  1500 1 ) simpleGrading (1 1 1) //30 cells per R
    hex (0 1 2 3 0 4 5 3) ( 75  750 1 ) simpleGrading (1 1 1) //15 cells per R
);

edges
(
);

boundary
(
    all-walls
    {
        type    patch;
        faces
        (
            (0 1 4 0)
            (3 2 5 3)
            (1 4 5 2)
        );
    }
    
    wedge1
    {
        type	wedge;
        faces
        (
            (0 1 2 3)
        );
    }
    
    wedge2
    {
        type	wedge;
        faces
        (
            (0 4 5 3)
        );
    }
    
);

mergePatchPairs
(
);

// ************************************************************************* //
