/*--------------------------------*- C++ -*----------------------------------*\
| =========                 |                                                 |
| \\      /  F ield         | OpenFOAM: The Open Source CFD Toolbox           |
|  \\    /   O peration     | Version:  3.0.1                                 |
|   \\  /    A nd           | Web:      www.OpenFOAM.org                      |
|    \\/     M anipulation  |                                                 |
\*---------------------------------------------------------------------------*/
FoamFile
{
    version     2.0;
    format      ascii;
    class       volScalarField;
    location    "0";
    object      rho;
}
// * * * * * * * * * * * * * * * * * * * * * * * * * * * * * * * * * * * * * //

dimensions      [1 -3 0 0 0 0 0];

internalField   uniform 1;

boundaryField
{
    inlet
    {
        type            calculated;
        value           uniform 1;
    }
    outlet
    {
        type            calculated;
        value           uniform 1;
    }
    walls
    {
        type            zeroGradient;
        value           uniform 1;
    }
    defaultFaces
    {
        type            empty;
    }
    ACMI1_blockage
    {
        type            zeroGradient;
        value           $internalField;
    }
    ACMI1_couple
    {
        type            cyclicACMI;
        value           $internalField;
    }
    ACMI2_blockage
    {
        type            zeroGradient;
        value           $internalField;
    }
    ACMI2_couple
    {
        type            cyclicACMI;
        value           $internalField;
    }
}


// ************************************************************************* //
