/*--------------------------------*- C++ -*----------------------------------*\
| =========                 |                                                 |
| \\      /  F ield         | OpenFOAM: The Open Source CFD Toolbox           |
|  \\    /   O peration     | Version:  2.3.0                                 |
|   \\  /    A nd           | Web:      www.OpenFOAM.org                      |
|    \\/     M anipulation  |                                                 |
\*---------------------------------------------------------------------------*/
FoamFile
{
    version     2.0;
    format      ascii;
    class       dictionary;
    location    "system";
    object      controlDict;
}
// * * * * * * * * * * * * * * * * * * * * * * * * * * * * * * * * * * * * * //

application     pimpleCentralFoam;

startFrom       latestTime;

startTime       0;

stopAt          endTime;

endTime         2500;

deltaT          1;

writeControl    adjustableRunTime;

writeInterval   100; //300;

purgeWrite      0;

writeFormat     ascii;

writePrecision  6;

writeCompression off;

timeFormat      general;

timePrecision   6;

runTimeModifiable true;

adjustTimeStep  false;

CourantType     cellCourant;

maxCo constant  0.5;

rDeltaTSmoothingCoeff table
(
    (   0 0.001)
    ( 100 0.001)
    ( 200 0.025)
);

rDeltaTDampingCoeff constant 0.5;

initialDeltaT   1e-7;

maxDeltaT       1e-3;

// ************************************************************************* //
