/*--------------------------------*- C++ -*----------------------------------*\
| =========                 |                                                 |
| \\      /  F ield         | OpenFOAM: The Open Source CFD Toolbox           |
|  \\    /   O peration     | Version:  2.3.0                                 |
|   \\  /    A nd           | Web:      www.OpenFOAM.org                      |
|    \\/     M anipulation  |                                                 |
\*---------------------------------------------------------------------------*/
FoamFile
{
    version     2.0;
    format      ascii;
    class       dictionary;
    location    "system";
    object      fvSolution;
}
// * * * * * * * * * * * * * * * * * * * * * * * * * * * * * * * * * * * * * //

solvers
{
    "(rho|U|h|p).*"
    {
        solver          PBiCGStab;
        preconditioner	DILU;
        tolerance       1e-07;
        relTol          0.0;
    }
    
    pcorr
    {
        solver          PCG;
        tolerance       1e-07;
        relTol          1e-03;
        maxIter         20;
        preconditioner
        {
            preconditioner  GAMG;
            tolerance       1e-5;
            relTol          0.01;
            smoother        GaussSeidel;
            nPreSweeps      0;
            nPostSweeps     2;
            cacheAgglomeration no;
            nCellsInCoarsestLevel 100;
            agglomerator    faceAreaPair;
            mergeLevels     1;
        }
    }
    
    cellDisplacement
    {
        solver          PCG;
        tolerance       1e-06;
        relTol          1e-06;
        preconditioner
        {
            preconditioner  GAMG;
            tolerance       1e-5;
            relTol          0.01;
            smoother        GaussSeidel;
            nPreSweeps      0;
            nPostSweeps     2;
            cacheAgglomeration no;
            nCellsInCoarsestLevel 100;
            agglomerator    faceAreaPair;
            mergeLevels     1;
        }
    }
}

PIMPLE
{
    checkMeshCourantNo          true;
    correctPhi                  true;
    momentumPredictor           false; //true;
    nCorrectors                 2;
    nOuterCorrectors            1;
    nNonOrthogonalCorrectors    1;
    nonOrthogonalityThreshold   15;
    skewnessThreshold           0.5;
    updateEnergyInPISO          false;
    fluxScheme                  Kurganov; //Tadmor;
    
    kappaFunction
    {
        type standardMachToAcCourantRatio;
        
        standardMachToAcCourantRatioCoeffs
        {
        }
    }
}

// ************************************************************************* //
