/*--------------------------------*- C++ -*----------------------------------*\
| =========                 |                                                 |
| \\      /  F ield         | OpenFOAM: The Open Source CFD Toolbox           |
|  \\    /   O peration     | Version:  4.1                                   |
|   \\  /    A nd           | Web:      www.OpenFOAM.org                      |
|    \\/     M anipulation  |                                                 |
\*---------------------------------------------------------------------------*/
FoamFile
{
    version     2.0;
    format      ascii;
    class       surfaceScalarField;
    location    "constant/polyMesh";
    object      magSf;
}
// * * * * * * * * * * * * * * * * * * * * * * * * * * * * * * * * * * * * * //

dimensions      [0 2 0 0 0 0 0];

internalField   nonuniform List<scalar> 
21464
(
0.001
0.00125
0.001
0.00125
0.001
0.00125
0.001
0.00125
0.001
0.00125
0.001
0.00125
0.001
0.00125
0.001
0.00125
0.001
0.00125
0.001
0.00125
0.001
0.00125
0.001
0.00125
0.001
0.00125
0.001
0.00125
0.001
0.00125
0.001
0.00125
0.001
0.00125
0.001
0.00125
0.001
0.00125
0.001
0.00125
0.001
0.00125
0.001
0.00125
0.001
0.00125
0.001
0.00125
0.001
0.00125
0.001
0.00125
0.001
0.00125
0.001
0.00125
0.001
0.00125
0.001
0.00125
0.001
0.00125
0.001
0.00125
0.001
0.00125
0.001
0.00125
0.001
0.00125
0.001
0.00125
0.001
0.00125
0.001
0.00125
0.001
0.00125
0.001
0.00125
0.001
0.00125
0.001
0.00125
0.001
0.00125
0.001
0.00125
0.001
0.00125
0.001
0.00125
0.001
0.00125
0.001
0.00125
0.001
0.00125
0.001
0.00125
0.001
0.00125
0.001
0.00125
0.001
0.00125
0.001
0.00125
0.001
0.00125
0.001
0.00125
0.001
0.00125
0.001
0.00125
0.001
0.00125
0.001
0.00125
0.001
0.00125
0.001
0.00125
0.001
0.00125
0.001
0.00125
0.001
0.00125
0.001
0.00125
0.001
0.00125
0.001
0.00125
0.001
0.00125
0.001
0.00125
0.001
0.00125
0.001
0.00125
0.001
0.00125
0.001
0.00125
0.001
0.00125
0.001
0.00125
0.001
0.00125
0.001
0.00125
0.001
0.00125
0.00125
0.001
0.00125
0.001
0.00125
0.001
0.00125
0.001
0.00125
0.001
0.00125
0.001
0.00125
0.001
0.00125
0.001
0.00125
0.001
0.00125
0.001
0.00125
0.001
0.00125
0.001
0.00125
0.001
0.00125
0.001
0.00125
0.001
0.00125
0.001
0.00125
0.001
0.00125
0.001
0.00125
0.001
0.00125
0.001
0.00125
0.001
0.00125
0.001
0.00125
0.001
0.00125
0.001
0.00125
0.001
0.00125
0.001
0.00125
0.001
0.00125
0.001
0.00125
0.001
0.00125
0.001
0.00125
0.001
0.00125
0.001
0.00125
0.001
0.00125
0.001
0.00125
0.001
0.00125
0.001
0.00125
0.001
0.00125
0.001
0.00125
0.001
0.00125
0.001
0.00125
0.001
0.00125
0.001
0.00125
0.001
0.00125
0.001
0.00125
0.001
0.00125
0.001
0.00125
0.001
0.00125
0.001
0.00125
0.001
0.00125
0.001
0.00125
0.001
0.00125
0.001
0.00125
0.001
0.00125
0.001
0.00125
0.001
0.00125
0.001
0.00125
0.001
0.00125
0.001
0.00125
0.001
0.00125
0.001
0.00125
0.001
0.00125
0.001
0.00125
0.001
0.00125
0.001
0.00125
0.001
0.00125
0.001
0.00125
0.001
0.00125
0.001
0.00125
0.001
0.00125
0.001
0.00125
0.001
0.00125
0.001
0.00125
0.001
0.00125
0.001
0.00125
0.001
0.00125
0.001
0.00125
0.001
0.00125
0.001
0.00125
0.001
0.00125
0.00125
0.001
0.00125
0.001
0.00125
0.001
0.00125
0.001
0.00125
0.001
0.00125
0.001
0.00125
0.001
0.00125
0.001
0.00125
0.001
0.00125
0.001
0.00125
0.001
0.00125
0.001
0.00125
0.001
0.00125
0.001
0.00125
0.001
0.00125
0.001
0.00125
0.001
0.00125
0.001
0.00125
0.001
0.00125
0.001
0.00125
0.001
0.00125
0.001
0.00125
0.001
0.00125
0.001
0.00125
0.001
0.00125
0.001
0.00125
0.001
0.00125
0.001
0.00125
0.001
0.00125
0.001
0.00125
0.001
0.00125
0.001
0.00125
0.001
0.00125
0.001
0.00125
0.001
0.00125
0.001
0.00125
0.001
0.00125
0.001
0.00125
0.001
0.00125
0.001
0.00125
0.001
0.00125
0.001
0.00125
0.001
0.00125
0.001
0.00125
0.001
0.00125
0.001
0.00125
0.001
0.00125
0.001
0.00125
0.001
0.00125
0.001
0.00125
0.001
0.00125
0.001
0.00125
0.001
0.00125
0.001
0.00125
0.001
0.00125
0.001
0.00125
0.001
0.00125
0.001
0.00125
0.001
0.00125
0.001
0.00125
0.001
0.00125
0.001
0.00125
0.001
0.00125
0.001
0.00125
0.001
0.00125
0.001
0.00125
0.001
0.00125
0.001
0.00125
0.001
0.00125
0.001
0.00125
0.001
0.00125
0.001
0.00125
0.001
0.00125
0.001
0.00125
0.001
0.00125
0.001
0.00125
0.001
0.00125
0.001
0.00125
0.001
0.00125
0.00125
0.001
0.00125
0.001
0.00125
0.001
0.00125
0.001
0.00125
0.001
0.00125
0.001
0.00125
0.001
0.00125
0.001
0.00125
0.001
0.00125
0.001
0.00125
0.001
0.00125
0.001
0.00125
0.001
0.00125
0.001
0.00125
0.001
0.00125
0.001
0.00125
0.001
0.00125
0.001
0.00125
0.001
0.00125
0.001
0.00125
0.001
0.00125
0.001
0.00125
0.001
0.00125
0.001
0.00125
0.001
0.00125
0.001
0.00125
0.001
0.00125
0.001
0.00125
0.001
0.00125
0.001
0.00125
0.001
0.00125
0.001
0.00125
0.001
0.00125
0.001
0.00125
0.001
0.00125
0.001
0.00125
0.001
0.00125
0.001
0.00125
0.001
0.00125
0.001
0.00125
0.001
0.00125
0.001
0.00125
0.001
0.00125
0.001
0.00125
0.001
0.00125
0.001
0.00125
0.001
0.00125
0.001
0.00125
0.001
0.00125
0.001
0.00125
0.001
0.00125
0.001
0.00125
0.001
0.00125
0.001
0.00125
0.001
0.00125
0.001
0.00125
0.001
0.00125
0.001
0.00125
0.001
0.00125
0.001
0.00125
0.001
0.00125
0.001
0.00125
0.001
0.00125
0.001
0.00125
0.001
0.00125
0.001
0.00125
0.001
0.00125
0.001
0.00125
0.001
0.00125
0.001
0.00125
0.001
0.00125
0.001
0.00125
0.001
0.00125
0.001
0.00125
0.001
0.00125
0.001
0.00125
0.001
0.00125
0.001
0.00125
0.001
0.00125
0.00125
0.001
0.00125
0.001
0.00125
0.001
0.00125
0.001
0.00125
0.001
0.00125
0.001
0.00125
0.001
0.00125
0.001
0.00125
0.001
0.00125
0.001
0.00125
0.001
0.00125
0.001
0.00125
0.001
0.00125
0.001
0.00125
0.001
0.00125
0.001
0.00125
0.001
0.00125
0.001
0.00125
0.001
0.00125
0.001
0.00125
0.001
0.00125
0.001
0.00125
0.001
0.00125
0.001
0.00125
0.001
0.00125
0.001
0.00125
0.001
0.00125
0.001
0.00125
0.001
0.00125
0.001
0.00125
0.001
0.00125
0.001
0.00125
0.001
0.00125
0.001
0.00125
0.001
0.00125
0.001
0.00125
0.001
0.00125
0.001
0.00125
0.001
0.00125
0.001
0.00125
0.001
0.00125
0.001
0.00125
0.001
0.00125
0.001
0.00125
0.001
0.00125
0.001
0.00125
0.001
0.00125
0.001
0.00125
0.001
0.00125
0.001
0.00125
0.001
0.00125
0.001
0.00125
0.001
0.00125
0.001
0.00125
0.001
0.00125
0.001
0.00125
0.001
0.00125
0.001
0.00125
0.001
0.00125
0.001
0.00125
0.001
0.00125
0.001
0.00125
0.001
0.00125
0.001
0.00125
0.001
0.00125
0.001
0.00125
0.001
0.00125
0.001
0.00125
0.001
0.00125
0.001
0.00125
0.001
0.00125
0.001
0.00125
0.001
0.00125
0.001
0.00125
0.001
0.00125
0.001
0.00125
0.001
0.00125
0.001
0.00125
0.001
0.00125
0.00125
0.001
0.00125
0.001
0.00125
0.001
0.00125
0.001
0.00125
0.001
0.00125
0.001
0.00125
0.001
0.00125
0.001
0.00125
0.001
0.00125
0.001
0.00125
0.001
0.00125
0.001
0.00125
0.001
0.00125
0.001
0.00125
0.001
0.00125
0.001
0.00125
0.001
0.00125
0.001
0.00125
0.001
0.00125
0.001
0.00125
0.001
0.00125
0.001
0.00125
0.001
0.00125
0.001
0.00125
0.001
0.00125
0.001
0.00125
0.001
0.00125
0.001
0.00125
0.001
0.00125
0.001
0.00125
0.001
0.00125
0.001
0.00125
0.001
0.00125
0.001
0.00125
0.001
0.00125
0.001
0.00125
0.001
0.00125
0.001
0.00125
0.001
0.00125
0.001
0.00125
0.001
0.00125
0.001
0.00125
0.001
0.00125
0.001
0.00125
0.001
0.00125
0.001
0.00125
0.001
0.00125
0.001
0.00125
0.001
0.00125
0.001
0.00125
0.001
0.00125
0.001
0.00125
0.001
0.00125
0.001
0.00125
0.001
0.00125
0.001
0.00125
0.001
0.00125
0.001
0.00125
0.001
0.00125
0.001
0.00125
0.001
0.00125
0.001
0.00125
0.001
0.00125
0.001
0.00125
0.001
0.00125
0.001
0.00125
0.001
0.00125
0.001
0.00125
0.001
0.00125
0.001
0.00125
0.001
0.00125
0.001
0.00125
0.001
0.00125
0.001
0.00125
0.001
0.00125
0.001
0.00125
0.001
0.00125
0.001
0.00125
0.001
0.00125
0.00125
0.001
0.00125
0.001
0.00125
0.001
0.00125
0.001
0.00125
0.001
0.00125
0.001
0.00125
0.001
0.00125
0.001
0.00125
0.001
0.00125
0.001
0.00125
0.001
0.00125
0.001
0.00125
0.001
0.00125
0.001
0.00125
0.001
0.00125
0.001
0.00125
0.001
0.00125
0.001
0.00125
0.001
0.00125
0.001
0.00125
0.001
0.00125
0.001
0.00125
0.001
0.00125
0.001
0.00125
0.001
0.00125
0.001
0.00125
0.001
0.00125
0.001
0.00125
0.001
0.00125
0.001
0.00125
0.001
0.00125
0.001
0.00125
0.001
0.00125
0.001
0.00125
0.001
0.00125
0.001
0.00125
0.001
0.00125
0.001
0.00125
0.001
0.00125
0.001
0.00125
0.001
0.00125
0.001
0.00125
0.001
0.00125
0.001
0.00125
0.001
0.00125
0.001
0.00125
0.001
0.00125
0.001
0.00125
0.001
0.00125
0.001
0.00125
0.001
0.00125
0.001
0.00125
0.001
0.00125
0.001
0.00125
0.001
0.00125
0.001
0.00125
0.001
0.00125
0.001
0.00125
0.001
0.00125
0.001
0.00125
0.001
0.00125
0.001
0.00125
0.001
0.00125
0.001
0.00125
0.001
0.00125
0.001
0.00125
0.001
0.00125
0.001
0.00125
0.001
0.00125
0.001
0.00125
0.001
0.00125
0.001
0.00125
0.001
0.00125
0.001
0.00125
0.001
0.00125
0.001
0.00125
0.001
0.00125
0.001
0.00125
0.001
0.00125
0.00125
0.001
0.00125
0.001
0.00125
0.001
0.00125
0.001
0.00125
0.001
0.00125
0.001
0.00125
0.001
0.00125
0.001
0.00125
0.001
0.00125
0.001
0.00125
0.001
0.00125
0.001
0.00125
0.001
0.00125
0.001
0.00125
0.001
0.00125
0.001
0.00125
0.001
0.00125
0.001
0.00125
0.001
0.00125
0.001
0.00125
0.001
0.00125
0.001
0.00125
0.001
0.00125
0.001
0.00125
0.001
0.00125
0.001
0.00125
0.001
0.00125
0.001
0.00125
0.001
0.00125
0.001
0.00125
0.001
0.00125
0.001
0.00125
0.001
0.00125
0.001
0.00125
0.001
0.00125
0.001
0.00125
0.001
0.00125
0.001
0.00125
0.001
0.00125
0.001
0.00125
0.001
0.00125
0.001
0.00125
0.001
0.00125
0.001
0.00125
0.001
0.00125
0.001
0.00125
0.001
0.00125
0.001
0.00125
0.001
0.00125
0.001
0.00125
0.001
0.00125
0.001
0.00125
0.001
0.00125
0.001
0.00125
0.001
0.00125
0.001
0.00125
0.001
0.00125
0.001
0.00125
0.001
0.00125
0.001
0.00125
0.001
0.00125
0.001
0.00125
0.001
0.00125
0.001
0.00125
0.001
0.00125
0.001
0.00125
0.001
0.00125
0.001
0.00125
0.001
0.00125
0.001
0.00125
0.001
0.00125
0.001
0.00125
0.001
0.00125
0.001
0.00125
0.001
0.00125
0.001
0.00125
0.001
0.00125
0.001
0.00125
0.001
0.00125
0.00125
0.001
0.00125
0.001
0.00125
0.001
0.00125
0.001
0.00125
0.001
0.00125
0.001
0.00125
0.001
0.00125
0.001
0.00125
0.001
0.00125
0.001
0.00125
0.001
0.00125
0.001
0.00125
0.001
0.00125
0.001
0.00125
0.001
0.00125
0.001
0.00125
0.001
0.00125
0.001
0.00125
0.001
0.00125
0.001
0.00125
0.001
0.00125
0.001
0.00125
0.001
0.00125
0.001
0.00125
0.001
0.00125
0.001
0.00125
0.001
0.00125
0.001
0.00125
0.001
0.00125
0.001
0.00125
0.001
0.00125
0.001
0.00125
0.001
0.00125
0.001
0.00125
0.001
0.00125
0.001
0.00125
0.001
0.00125
0.001
0.00125
0.001
0.00125
0.001
0.00125
0.001
0.00125
0.001
0.00125
0.001
0.00125
0.001
0.00125
0.001
0.00125
0.001
0.00125
0.001
0.00125
0.001
0.00125
0.001
0.00125
0.001
0.00125
0.001
0.00125
0.001
0.00125
0.001
0.00125
0.001
0.00125
0.001
0.00125
0.001
0.00125
0.001
0.00125
0.001
0.00125
0.001
0.00125
0.001
0.00125
0.001
0.00125
0.001
0.00125
0.001
0.00125
0.001
0.00125
0.001
0.00125
0.001
0.00125
0.001
0.00125
0.001
0.00125
0.001
0.00125
0.001
0.00125
0.001
0.00125
0.001
0.00125
0.001
0.00125
0.001
0.00125
0.001
0.00125
0.001
0.00125
0.001
0.00125
0.001
0.00125
0.001
0.00125
0.00125
0.001
0.00125
0.001
0.00125
0.001
0.00125
0.001
0.00125
0.001
0.00125
0.001
0.00125
0.001
0.00125
0.001
0.00125
0.001
0.00125
0.001
0.00125
0.001
0.00125
0.001
0.00125
0.001
0.00125
0.001
0.00125
0.001
0.00125
0.001
0.00125
0.001
0.00125
0.001
0.00125
0.001
0.00125
0.001
0.00125
0.001
0.00125
0.001
0.00125
0.001
0.00125
0.001
0.00125
0.001
0.00125
0.001
0.00125
0.001
0.00125
0.001
0.00125
0.001
0.00125
0.001
0.00125
0.001
0.00125
0.001
0.00125
0.001
0.00125
0.001
0.00125
0.001
0.00125
0.001
0.00125
0.001
0.00125
0.001
0.00125
0.001
0.00125
0.001
0.00125
0.001
0.00125
0.001
0.00125
0.001
0.00125
0.001
0.00125
0.001
0.00125
0.001
0.00125
0.001
0.00125
0.001
0.00125
0.001
0.00125
0.001
0.00125
0.001
0.00125
0.001
0.00125
0.001
0.00125
0.001
0.00125
0.001
0.00125
0.001
0.00125
0.001
0.00125
0.001
0.00125
0.001
0.00125
0.001
0.00125
0.001
0.00125
0.001
0.00125
0.001
0.00125
0.001
0.00125
0.001
0.00125
0.001
0.00125
0.001
0.00125
0.001
0.00125
0.001
0.00125
0.001
0.00125
0.001
0.00125
0.001
0.00125
0.001
0.00125
0.001
0.00125
0.001
0.00125
0.001
0.00125
0.001
0.00125
0.001
0.00125
0.001
0.00125
0.00125
0.001
0.00125
0.001
0.00125
0.001
0.00125
0.001
0.00125
0.001
0.00125
0.001
0.00125
0.001
0.00125
0.001
0.00125
0.001
0.00125
0.001
0.00125
0.001
0.00125
0.001
0.00125
0.001
0.00125
0.001
0.00125
0.001
0.00125
0.001
0.00125
0.001
0.00125
0.001
0.00125
0.001
0.00125
0.001
0.00125
0.001
0.00125
0.001
0.00125
0.001
0.00125
0.001
0.00125
0.001
0.00125
0.001
0.00125
0.001
0.00125
0.001
0.00125
0.001
0.00125
0.001
0.00125
0.001
0.00125
0.001
0.00125
0.001
0.00125
0.001
0.00125
0.001
0.00125
0.001
0.00125
0.001
0.00125
0.001
0.00125
0.001
0.00125
0.001
0.00125
0.001
0.00125
0.001
0.00125
0.001
0.00125
0.001
0.00125
0.001
0.00125
0.001
0.00125
0.001
0.00125
0.001
0.00125
0.001
0.00125
0.001
0.00125
0.001
0.00125
0.001
0.00125
0.001
0.00125
0.001
0.00125
0.001
0.00125
0.001
0.00125
0.001
0.00125
0.001
0.00125
0.001
0.00125
0.001
0.00125
0.001
0.00125
0.001
0.00125
0.001
0.00125
0.001
0.00125
0.001
0.00125
0.001
0.00125
0.001
0.00125
0.001
0.00125
0.001
0.00125
0.001
0.00125
0.001
0.00125
0.001
0.00125
0.001
0.00125
0.001
0.00125
0.001
0.00125
0.001
0.00125
0.001
0.00125
0.001
0.00125
0.001
0.00125
0.00125
0.001
0.00125
0.001
0.00125
0.001
0.00125
0.001
0.00125
0.001
0.00125
0.001
0.00125
0.001
0.00125
0.001
0.00125
0.001
0.00125
0.001
0.00125
0.001
0.00125
0.001
0.00125
0.001
0.00125
0.001
0.00125
0.001
0.00125
0.001
0.00125
0.001
0.00125
0.001
0.00125
0.001
0.00125
0.001
0.00125
0.001
0.00125
0.001
0.00125
0.001
0.00125
0.001
0.00125
0.001
0.00125
0.001
0.00125
0.001
0.00125
0.001
0.00125
0.001
0.00125
0.001
0.00125
0.001
0.00125
0.001
0.00125
0.001
0.00125
0.001
0.00125
0.001
0.00125
0.001
0.00125
0.001
0.00125
0.001
0.00125
0.001
0.00125
0.001
0.00125
0.001
0.00125
0.001
0.00125
0.001
0.00125
0.001
0.00125
0.001
0.00125
0.001
0.00125
0.001
0.00125
0.001
0.00125
0.001
0.00125
0.001
0.00125
0.001
0.00125
0.001
0.00125
0.001
0.00125
0.001
0.00125
0.001
0.00125
0.001
0.00125
0.001
0.00125
0.001
0.00125
0.001
0.00125
0.001
0.00125
0.001
0.00125
0.001
0.00125
0.001
0.00125
0.001
0.00125
0.001
0.00125
0.001
0.00125
0.001
0.00125
0.001
0.00125
0.001
0.00125
0.001
0.00125
0.001
0.00125
0.001
0.00125
0.001
0.00125
0.001
0.00125
0.001
0.00125
0.001
0.00125
0.001
0.00125
0.001
0.00125
0.001
0.00125
0.00125
0.001
0.00125
0.001
0.00125
0.001
0.00125
0.001
0.00125
0.001
0.00125
0.001
0.00125
0.001
0.00125
0.001
0.00125
0.001
0.00125
0.001
0.00125
0.001
0.00125
0.001
0.00125
0.001
0.00125
0.001
0.00125
0.001
0.00125
0.001
0.00125
0.001
0.00125
0.001
0.00125
0.001
0.00125
0.001
0.00125
0.001
0.00125
0.001
0.00125
0.001
0.00125
0.001
0.00125
0.001
0.00125
0.001
0.00125
0.001
0.00125
0.001
0.00125
0.001
0.00125
0.001
0.00125
0.001
0.00125
0.001
0.00125
0.001
0.00125
0.001
0.00125
0.001
0.00125
0.001
0.00125
0.001
0.00125
0.001
0.00125
0.001
0.00125
0.001
0.00125
0.001
0.00125
0.001
0.00125
0.001
0.00125
0.001
0.00125
0.001
0.00125
0.001
0.00125
0.001
0.00125
0.001
0.00125
0.001
0.00125
0.001
0.00125
0.001
0.00125
0.001
0.00125
0.001
0.00125
0.001
0.00125
0.001
0.00125
0.001
0.00125
0.001
0.00125
0.001
0.00125
0.001
0.00125
0.001
0.00125
0.001
0.00125
0.001
0.00125
0.001
0.00125
0.001
0.00125
0.001
0.00125
0.001
0.00125
0.001
0.00125
0.001
0.00125
0.001
0.00125
0.001
0.00125
0.001
0.00125
0.001
0.00125
0.001
0.00125
0.001
0.00125
0.001
0.00125
0.001
0.00125
0.001
0.00125
0.001
0.00125
0.001
0.00125
0.00125
0.001
0.00125
0.001
0.00125
0.001
0.00125
0.001
0.00125
0.001
0.00125
0.001
0.00125
0.001
0.00125
0.001
0.00125
0.001
0.00125
0.001
0.00125
0.001
0.00125
0.001
0.00125
0.001
0.00125
0.001
0.00125
0.001
0.00125
0.001
0.00125
0.001
0.00125
0.001
0.00125
0.001
0.00125
0.001
0.00125
0.001
0.00125
0.001
0.00125
0.001
0.00125
0.001
0.00125
0.001
0.00125
0.001
0.00125
0.001
0.00125
0.001
0.00125
0.001
0.00125
0.001
0.00125
0.001
0.00125
0.001
0.00125
0.001
0.00125
0.001
0.00125
0.001
0.00125
0.001
0.00125
0.001
0.00125
0.001
0.00125
0.001
0.00125
0.001
0.00125
0.001
0.00125
0.001
0.00125
0.001
0.00125
0.001
0.00125
0.001
0.00125
0.001
0.00125
0.001
0.00125
0.001
0.00125
0.001
0.00125
0.001
0.00125
0.001
0.00125
0.001
0.00125
0.001
0.00125
0.001
0.00125
0.001
0.00125
0.001
0.00125
0.001
0.00125
0.001
0.00125
0.001
0.00125
0.001
0.00125
0.001
0.00125
0.001
0.00125
0.001
0.00125
0.001
0.00125
0.001
0.00125
0.001
0.00125
0.001
0.00125
0.001
0.00125
0.001
0.00125
0.001
0.00125
0.001
0.00125
0.001
0.00125
0.001
0.00125
0.001
0.00125
0.001
0.00125
0.001
0.00125
0.001
0.00125
0.001
0.00125
0.001
0.00125
0.00125
0.001
0.00125
0.001
0.00125
0.001
0.00125
0.001
0.00125
0.001
0.00125
0.001
0.00125
0.001
0.00125
0.001
0.00125
0.001
0.00125
0.001
0.00125
0.001
0.00125
0.001
0.00125
0.001
0.00125
0.001
0.00125
0.001
0.00125
0.001
0.00125
0.001
0.00125
0.001
0.00125
0.001
0.00125
0.001
0.00125
0.001
0.00125
0.001
0.00125
0.001
0.00125
0.001
0.00125
0.001
0.00125
0.001
0.00125
0.001
0.00125
0.001
0.00125
0.001
0.00125
0.001
0.00125
0.001
0.00125
0.001
0.00125
0.001
0.00125
0.001
0.00125
0.001
0.00125
0.001
0.00125
0.001
0.00125
0.001
0.00125
0.001
0.00125
0.001
0.00125
0.001
0.00125
0.001
0.00125
0.001
0.00125
0.001
0.00125
0.001
0.00125
0.001
0.00125
0.001
0.00125
0.001
0.00125
0.001
0.00125
0.001
0.00125
0.001
0.00125
0.001
0.00125
0.001
0.00125
0.001
0.00125
0.001
0.00125
0.001
0.00125
0.001
0.00125
0.001
0.00125
0.001
0.00125
0.001
0.00125
0.001
0.00125
0.001
0.00125
0.001
0.00125
0.001
0.00125
0.001
0.00125
0.001
0.00125
0.001
0.00125
0.001
0.00125
0.001
0.00125
0.001
0.00125
0.001
0.00125
0.001
0.00125
0.001
0.00125
0.001
0.00125
0.001
0.00125
0.001
0.00125
0.001
0.00125
0.001
0.00125
0.001
0.00125
0.00125
0.001
0.00125
0.001
0.00125
0.001
0.00125
0.001
0.00125
0.001
0.00125
0.001
0.00125
0.001
0.00125
0.001
0.00125
0.001
0.00125
0.001
0.00125
0.001
0.00125
0.001
0.00125
0.001
0.00125
0.001
0.00125
0.001
0.00125
0.001
0.00125
0.001
0.00125
0.001
0.00125
0.001
0.00125
0.001
0.00125
0.001
0.00125
0.001
0.00125
0.001
0.00125
0.001
0.00125
0.001
0.00125
0.001
0.00125
0.001
0.00125
0.001
0.00125
0.001
0.00125
0.001
0.00125
0.001
0.00125
0.001
0.00125
0.001
0.00125
0.001
0.00125
0.001
0.00125
0.001
0.00125
0.001
0.00125
0.001
0.00125
0.001
0.00125
0.001
0.00125
0.001
0.00125
0.001
0.00125
0.001
0.00125
0.001
0.00125
0.001
0.00125
0.001
0.00125
0.001
0.00125
0.001
0.00125
0.001
0.00125
0.001
0.00125
0.001
0.00125
0.001
0.00125
0.001
0.00125
0.001
0.00125
0.001
0.00125
0.001
0.00125
0.001
0.00125
0.001
0.00125
0.001
0.00125
0.001
0.00125
0.001
0.00125
0.001
0.00125
0.001
0.00125
0.001
0.00125
0.001
0.00125
0.001
0.00125
0.001
0.00125
0.001
0.00125
0.001
0.00125
0.001
0.00125
0.001
0.00125
0.001
0.00125
0.001
0.00125
0.001
0.00125
0.001
0.00125
0.001
0.00125
0.001
0.00125
0.001
0.00125
0.001
0.00125
0.00125
0.001
0.00125
0.001
0.00125
0.001
0.00125
0.001
0.00125
0.001
0.00125
0.001
0.00125
0.001
0.00125
0.001
0.00125
0.001
0.00125
0.001
0.00125
0.001
0.00125
0.001
0.00125
0.001
0.00125
0.001
0.00125
0.001
0.00125
0.001
0.00125
0.001
0.00125
0.001
0.00125
0.001
0.00125
0.001
0.00125
0.001
0.00125
0.001
0.00125
0.001
0.00125
0.001
0.00125
0.001
0.00125
0.001
0.00125
0.001
0.00125
0.001
0.00125
0.001
0.00125
0.001
0.00125
0.001
0.00125
0.001
0.00125
0.001
0.00125
0.001
0.00125
0.001
0.00125
0.001
0.00125
0.001
0.00125
0.001
0.00125
0.001
0.00125
0.001
0.00125
0.001
0.00125
0.001
0.00125
0.001
0.00125
0.001
0.00125
0.001
0.00125
0.001
0.00125
0.001
0.00125
0.001
0.00125
0.001
0.00125
0.001
0.00125
0.001
0.00125
0.001
0.00125
0.001
0.00125
0.001
0.00125
0.001
0.00125
0.001
0.00125
0.001
0.00125
0.001
0.00125
0.001
0.00125
0.001
0.00125
0.001
0.00125
0.001
0.00125
0.001
0.00125
0.001
0.00125
0.001
0.00125
0.001
0.00125
0.001
0.00125
0.001
0.00125
0.001
0.00125
0.001
0.00125
0.001
0.00125
0.001
0.00125
0.001
0.00125
0.001
0.00125
0.001
0.00125
0.001
0.00125
0.001
0.00125
0.001
0.00125
0.001
0.00125
0.00125
0.001
0.00125
0.001
0.00125
0.001
0.00125
0.001
0.00125
0.001
0.00125
0.001
0.00125
0.001
0.00125
0.001
0.00125
0.001
0.00125
0.001
0.00125
0.001
0.00125
0.001
0.00125
0.001
0.00125
0.001
0.00125
0.001
0.00125
0.001
0.00125
0.001
0.00125
0.001
0.00125
0.001
0.00125
0.001
0.00125
0.001
0.00125
0.001
0.00125
0.001
0.00125
0.001
0.00125
0.001
0.00125
0.001
0.00125
0.001
0.00125
0.001
0.00125
0.001
0.00125
0.001
0.00125
0.001
0.00125
0.001
0.00125
0.001
0.00125
0.001
0.00125
0.001
0.00125
0.001
0.00125
0.001
0.00125
0.001
0.00125
0.001
0.00125
0.001
0.00125
0.001
0.00125
0.001
0.00125
0.001
0.00125
0.001
0.00125
0.001
0.00125
0.001
0.00125
0.001
0.00125
0.001
0.00125
0.001
0.00125
0.001
0.00125
0.001
0.00125
0.001
0.00125
0.001
0.00125
0.001
0.00125
0.001
0.00125
0.001
0.00125
0.001
0.00125
0.001
0.00125
0.001
0.00125
0.001
0.00125
0.001
0.00125
0.001
0.00125
0.001
0.00125
0.001
0.00125
0.001
0.00125
0.001
0.00125
0.001
0.00125
0.001
0.00125
0.001
0.00125
0.001
0.00125
0.001
0.00125
0.001
0.00125
0.001
0.00125
0.001
0.00125
0.001
0.00125
0.001
0.00125
0.001
0.00125
0.001
0.00125
0.001
0.00125
0.00125
0.001
0.00125
0.001
0.00125
0.001
0.00125
0.001
0.00125
0.001
0.00125
0.001
0.00125
0.001
0.00125
0.001
0.00125
0.001
0.00125
0.001
0.00125
0.001
0.00125
0.001
0.00125
0.001
0.00125
0.001
0.00125
0.001
0.00125
0.001
0.00125
0.001
0.00125
0.001
0.00125
0.001
0.00125
0.001
0.00125
0.001
0.00125
0.001
0.00125
0.001
0.00125
0.001
0.00125
0.001
0.00125
0.001
0.00125
0.001
0.00125
0.001
0.00125
0.001
0.00125
0.001
0.00125
0.001
0.00125
0.001
0.00125
0.001
0.00125
0.001
0.00125
0.001
0.00125
0.001
0.00125
0.001
0.00125
0.001
0.00125
0.001
0.00125
0.001
0.00125
0.001
0.00125
0.001
0.00125
0.001
0.00125
0.001
0.00125
0.001
0.00125
0.001
0.00125
0.001
0.00125
0.001
0.00125
0.001
0.00125
0.001
0.00125
0.001
0.00125
0.001
0.00125
0.001
0.00125
0.001
0.00125
0.001
0.00125
0.001
0.00125
0.001
0.00125
0.001
0.00125
0.001
0.00125
0.001
0.00125
0.001
0.00125
0.001
0.00125
0.001
0.00125
0.001
0.00125
0.001
0.00125
0.001
0.00125
0.001
0.00125
0.001
0.00125
0.001
0.00125
0.001
0.00125
0.001
0.00125
0.001
0.00125
0.001
0.00125
0.001
0.00125
0.001
0.00125
0.001
0.00125
0.001
0.00125
0.001
0.00125
0.001
0.00125
0.00125
0.001
0.00125
0.001
0.00125
0.001
0.00125
0.001
0.00125
0.001
0.00125
0.001
0.00125
0.001
0.00125
0.001
0.00125
0.001
0.00125
0.001
0.00125
0.001
0.00125
0.001
0.00125
0.001
0.00125
0.001
0.00125
0.001
0.00125
0.001
0.00125
0.001
0.00125
0.001
0.00125
0.001
0.00125
0.001
0.00125
0.001
0.00125
0.001
0.00125
0.001
0.00125
0.001
0.00125
0.001
0.00125
0.001
0.00125
0.001
0.00125
0.001
0.00125
0.001
0.00125
0.001
0.00125
0.001
0.00125
0.001
0.00125
0.001
0.00125
0.001
0.00125
0.001
0.00125
0.001
0.00125
0.001
0.00125
0.001
0.00125
0.001
0.00125
0.001
0.00125
0.001
0.00125
0.001
0.00125
0.001
0.00125
0.001
0.00125
0.001
0.00125
0.001
0.00125
0.001
0.00125
0.001
0.00125
0.001
0.00125
0.001
0.00125
0.001
0.00125
0.001
0.00125
0.001
0.00125
0.001
0.00125
0.001
0.00125
0.001
0.00125
0.001
0.00125
0.001
0.00125
0.001
0.00125
0.001
0.00125
0.001
0.00125
0.001
0.00125
0.001
0.00125
0.001
0.00125
0.001
0.00125
0.001
0.00125
0.001
0.00125
0.001
0.00125
0.001
0.00125
0.001
0.00125
0.001
0.00125
0.001
0.00125
0.001
0.00125
0.001
0.00125
0.001
0.00125
0.001
0.00125
0.001
0.00125
0.001
0.00125
0.001
0.00125
0.00125
0.001
0.00125
0.001
0.00125
0.001
0.00125
0.001
0.00125
0.001
0.00125
0.001
0.00125
0.001
0.00125
0.001
0.00125
0.001
0.00125
0.001
0.00125
0.001
0.00125
0.001
0.00125
0.001
0.00125
0.001
0.00125
0.001
0.00125
0.001
0.00125
0.001
0.00125
0.001
0.00125
0.001
0.00125
0.001
0.00125
0.001
0.00125
0.001
0.00125
0.001
0.00125
0.001
0.00125
0.001
0.00125
0.001
0.00125
0.001
0.00125
0.001
0.00125
0.001
0.00125
0.001
0.00125
0.001
0.00125
0.001
0.00125
0.001
0.00125
0.001
0.00125
0.001
0.00125
0.001
0.00125
0.001
0.00125
0.001
0.00125
0.001
0.00125
0.001
0.00125
0.001
0.00125
0.001
0.00125
0.001
0.00125
0.001
0.00125
0.001
0.00125
0.001
0.00125
0.001
0.00125
0.001
0.00125
0.001
0.00125
0.001
0.00125
0.001
0.00125
0.001
0.00125
0.001
0.00125
0.001
0.00125
0.001
0.00125
0.001
0.00125
0.001
0.00125
0.001
0.00125
0.001
0.00125
0.001
0.00125
0.001
0.00125
0.001
0.00125
0.001
0.00125
0.001
0.00125
0.001
0.00125
0.001
0.00125
0.001
0.00125
0.001
0.00125
0.001
0.00125
0.001
0.00125
0.001
0.00125
0.001
0.00125
0.001
0.00125
0.001
0.00125
0.001
0.00125
0.001
0.00125
0.001
0.00125
0.001
0.00125
0.001
0.00125
0.00125
0.001
0.00125
0.001
0.00125
0.001
0.00125
0.001
0.00125
0.001
0.00125
0.001
0.00125
0.001
0.00125
0.001
0.00125
0.001
0.00125
0.001
0.00125
0.001
0.00125
0.001
0.00125
0.001
0.00125
0.001
0.00125
0.001
0.00125
0.001
0.00125
0.001
0.00125
0.001
0.00125
0.001
0.00125
0.001
0.00125
0.001
0.00125
0.001
0.00125
0.001
0.00125
0.001
0.00125
0.001
0.00125
0.001
0.00125
0.001
0.00125
0.001
0.00125
0.001
0.00125
0.001
0.00125
0.001
0.00125
0.001
0.00125
0.001
0.00125
0.001
0.00125
0.001
0.00125
0.001
0.00125
0.001
0.00125
0.001
0.00125
0.001
0.00125
0.001
0.00125
0.001
0.00125
0.001
0.00125
0.001
0.00125
0.001
0.00125
0.001
0.00125
0.001
0.00125
0.001
0.00125
0.001
0.00125
0.001
0.00125
0.001
0.00125
0.001
0.00125
0.001
0.00125
0.001
0.00125
0.001
0.00125
0.001
0.00125
0.001
0.00125
0.001
0.00125
0.001
0.00125
0.001
0.00125
0.001
0.00125
0.001
0.00125
0.001
0.00125
0.001
0.00125
0.001
0.00125
0.001
0.00125
0.001
0.00125
0.001
0.00125
0.001
0.00125
0.001
0.00125
0.001
0.00125
0.001
0.00125
0.001
0.00125
0.001
0.00125
0.001
0.00125
0.001
0.00125
0.001
0.00125
0.001
0.00125
0.001
0.00125
0.001
0.00125
0.00125
0.001
0.00125
0.001
0.00125
0.001
0.00125
0.001
0.00125
0.001
0.00125
0.001
0.00125
0.001
0.00125
0.001
0.00125
0.001
0.00125
0.001
0.00125
0.001
0.00125
0.001
0.00125
0.001
0.00125
0.001
0.00125
0.001
0.00125
0.001
0.00125
0.001
0.00125
0.001
0.00125
0.001
0.00125
0.001
0.00125
0.001
0.00125
0.001
0.00125
0.001
0.00125
0.001
0.00125
0.001
0.00125
0.001
0.00125
0.001
0.00125
0.001
0.00125
0.001
0.00125
0.001
0.00125
0.001
0.00125
0.001
0.00125
0.001
0.00125
0.001
0.00125
0.001
0.00125
0.001
0.00125
0.001
0.00125
0.001
0.00125
0.001
0.00125
0.001
0.00125
0.001
0.00125
0.001
0.00125
0.001
0.00125
0.001
0.00125
0.001
0.00125
0.001
0.00125
0.001
0.00125
0.001
0.00125
0.001
0.00125
0.001
0.00125
0.001
0.00125
0.001
0.00125
0.001
0.00125
0.001
0.00125
0.001
0.00125
0.001
0.00125
0.001
0.00125
0.001
0.00125
0.001
0.00125
0.001
0.00125
0.001
0.00125
0.001
0.00125
0.001
0.00125
0.001
0.00125
0.001
0.00125
0.001
0.00125
0.001
0.00125
0.001
0.00125
0.001
0.00125
0.001
0.00125
0.001
0.00125
0.001
0.00125
0.001
0.00125
0.001
0.00125
0.001
0.00125
0.001
0.00125
0.001
0.00125
0.001
0.00125
0.001
0.00125
0.00125
0.001
0.00125
0.001
0.00125
0.001
0.00125
0.001
0.00125
0.001
0.00125
0.001
0.00125
0.001
0.00125
0.001
0.00125
0.001
0.00125
0.001
0.00125
0.001
0.00125
0.001
0.00125
0.001
0.00125
0.001
0.00125
0.001
0.00125
0.001
0.00125
0.001
0.00125
0.001
0.00125
0.001
0.00125
0.001
0.00125
0.001
0.00125
0.001
0.00125
0.001
0.00125
0.001
0.00125
0.001
0.00125
0.001
0.00125
0.001
0.00125
0.001
0.00125
0.001
0.00125
0.001
0.00125
0.001
0.00125
0.001
0.00125
0.001
0.00125
0.001
0.00125
0.001
0.00125
0.001
0.00125
0.001
0.00125
0.001
0.00125
0.001
0.00125
0.001
0.00125
0.001
0.00125
0.001
0.00125
0.001
0.00125
0.001
0.00125
0.001
0.00125
0.001
0.00125
0.001
0.00125
0.001
0.00125
0.001
0.00125
0.001
0.00125
0.001
0.00125
0.001
0.00125
0.001
0.00125
0.001
0.00125
0.001
0.00125
0.001
0.00125
0.001
0.00125
0.001
0.00125
0.001
0.00125
0.001
0.00125
0.001
0.00125
0.001
0.00125
0.001
0.00125
0.001
0.00125
0.001
0.00125
0.001
0.00125
0.001
0.00125
0.001
0.00125
0.001
0.00125
0.001
0.00125
0.001
0.00125
0.001
0.00125
0.001
0.00125
0.001
0.00125
0.001
0.00125
0.001
0.00125
0.001
0.00125
0.001
0.00125
0.001
0.00125
0.00125
0.001
0.00125
0.001
0.00125
0.001
0.00125
0.001
0.00125
0.001
0.00125
0.001
0.00125
0.001
0.00125
0.001
0.00125
0.001
0.00125
0.001
0.00125
0.001
0.00125
0.001
0.00125
0.001
0.00125
0.001
0.00125
0.001
0.00125
0.001
0.00125
0.001
0.00125
0.001
0.00125
0.001
0.00125
0.001
0.00125
0.001
0.00125
0.001
0.00125
0.001
0.00125
0.001
0.00125
0.001
0.00125
0.001
0.00125
0.001
0.00125
0.001
0.00125
0.001
0.00125
0.001
0.00125
0.001
0.00125
0.001
0.00125
0.001
0.00125
0.001
0.00125
0.001
0.00125
0.001
0.00125
0.001
0.00125
0.001
0.00125
0.001
0.00125
0.001
0.00125
0.001
0.00125
0.001
0.00125
0.001
0.00125
0.001
0.00125
0.001
0.00125
0.001
0.00125
0.001
0.00125
0.001
0.00125
0.001
0.00125
0.001
0.00125
0.001
0.00125
0.001
0.00125
0.001
0.00125
0.001
0.00125
0.001
0.00125
0.001
0.00125
0.001
0.00125
0.001
0.00125
0.001
0.00125
0.001
0.00125
0.001
0.00125
0.001
0.00125
0.001
0.00125
0.001
0.00125
0.001
0.00125
0.001
0.00125
0.001
0.00125
0.001
0.00125
0.001
0.00125
0.001
0.00125
0.001
0.00125
0.001
0.00125
0.001
0.00125
0.001
0.00125
0.001
0.00125
0.001
0.00125
0.001
0.00125
0.001
0.00125
0.001
0.00125
0.00125
0.001
0.00125
0.001
0.00125
0.001
0.00125
0.001
0.00125
0.001
0.00125
0.001
0.00125
0.001
0.00125
0.001
0.00125
0.001
0.00125
0.001
0.00125
0.001
0.00125
0.001
0.00125
0.001
0.00125
0.001
0.00125
0.001
0.00125
0.001
0.00125
0.001
0.00125
0.001
0.00125
0.001
0.00125
0.001
0.00125
0.001
0.00125
0.001
0.00125
0.001
0.00125
0.001
0.00125
0.001
0.00125
0.001
0.00125
0.001
0.00125
0.001
0.00125
0.001
0.00125
0.001
0.00125
0.001
0.00125
0.001
0.00125
0.001
0.00125
0.001
0.00125
0.001
0.00125
0.001
0.00125
0.001
0.00125
0.001
0.00125
0.001
0.00125
0.001
0.00125
0.001
0.00125
0.001
0.00125
0.001
0.00125
0.001
0.00125
0.001
0.00125
0.001
0.00125
0.001
0.00125
0.001
0.00125
0.001
0.00125
0.001
0.00125
0.001
0.00125
0.001
0.00125
0.001
0.00125
0.001
0.00125
0.001
0.00125
0.001
0.00125
0.001
0.00125
0.001
0.00125
0.001
0.00125
0.001
0.00125
0.001
0.00125
0.001
0.00125
0.001
0.00125
0.001
0.00125
0.001
0.00125
0.001
0.00125
0.001
0.00125
0.001
0.00125
0.001
0.00125
0.001
0.00125
0.001
0.00125
0.001
0.00125
0.001
0.00125
0.001
0.00125
0.001
0.00125
0.001
0.00125
0.001
0.00125
0.001
0.00125
0.001
0.00125
0.00125
0.001
0.00125
0.001
0.00125
0.001
0.00125
0.001
0.00125
0.001
0.00125
0.001
0.00125
0.001
0.00125
0.001
0.00125
0.001
0.00125
0.001
0.00125
0.001
0.00125