/*--------------------------------*- C++ -*----------------------------------*\
| =========                 |                                                 |
| \\      /  F ield         | OpenFOAM: The Open Source CFD Toolbox           |
|  \\    /   O peration     | Version:  2.3.0                                 |
|   \\  /    A nd           | Web:      www.OpenFOAM.org                      |
|    \\/     M anipulation  |                                                 |
\*---------------------------------------------------------------------------*/
FoamFile
{
    version     2.0;
    format      ascii;
    class       dictionary;
    object      blockMeshDict;
}
// * * * * * * * * * * * * * * * * * * * * * * * * * * * * * * * * * * * * * //

convertToMeters 1;

vertices
(
    (-0.01 -0.01 -0.0005)
    ( 0.02 -0.01 -0.0005)
    ( 0.02  0.01 -0.0005)
    (-0.01  0.01 -0.0005)
    (-0.01 -0.01  0.0005)
    ( 0.02 -0.01  0.0005)
    ( 0.02  0.01  0.0005)
    (-0.01  0.01  0.0005)
);

blocks
(
    hex (0 1 2 3 4 5 6 7) (150 1 1) simpleGrading (1 1 1)
);

edges
(
);

boundary
(
    leftAndRight
    {
        type wall;
        faces
        (
            (0 4 7 3)
            (1 2 6 5)
        );
    }
    frontAndBack
    {
        type empty;
        faces
        (
            (4 5 6 7)
            (0 3 2 1)
        );
    }
    topAndBottom
    {
        type empty;
        faces
        (
            (0 1 5 4)
            (7 6 2 3)
        );
    }
);

mergePatchPairs
(
);

// ************************************************************************* //
