/*--------------------------------*- C++ -*----------------------------------*\
| =========                 |                                                 |
| \\      /  F ield         | OpenFOAM: The Open Source CFD Toolbox           |
|  \\    /   O peration     | Version:  2.3.0                                 |
|   \\  /    A nd           | Web:      www.OpenFOAM.org                      |
|    \\/     M anipulation  |                                                 |
\*---------------------------------------------------------------------------*/
FoamFile
{
    version     2.0;
    format      ascii;
    class       dictionary;
    location    "system";
    object      setFieldsDict;
}
// * * * * * * * * * * * * * * * * * * * * * * * * * * * * * * * * * * * * * //

defaultFieldValues
(
    volScalarFieldValue T 293
    volScalarFieldValue p 1e+6
    volVectorFieldValue U ( 0 0 0 )
    volScalarFieldValue volumeFraction1 1
);

regions
(
    boxToCell
    {
        box ( 0 -1 -1 ) ( 0.5 1  1 );
        fieldValues
        (
            volScalarFieldValue T 293
            volScalarFieldValue p 1e+7
        );
    }
);


// ************************************************************************* //
