/*--------------------------------*- C++ -*----------------------------------*\
| =========                 |                                                 |
| \\      /  F ield         | OpenFOAM: The Open Source CFD Toolbox           |
|  \\    /   O peration     | Version:  v1812                                 |
|   \\  /    A nd           | Web:      www.OpenFOAM.com                      |
|    \\/     M anipulation  |                                                 |
\*---------------------------------------------------------------------------*/
FoamFile
{
    version     2.0;
    format      ascii;
    class       dictionary;
    location    "constant";
    object      reactingCloud1Properties;
}
// * * * * * * * * * * * * * * * * * * * * * * * * * * * * * * * * * * * * * //

solution
{
    active          true;
    coupled         true;
    transient       yes;
    cellValueSourceCorrection off;
    maxCo           0.3;

    sourceTerms
    {
        schemes
        {
            rho             explicit 1;
            U               explicit 1;
            Yi              explicit 1;
            h               explicit 1;
            radiation       explicit 1;
        }
    }

    interpolationSchemes
    {
        rho             cell;
        U               cellPoint;
        thermo:mu       cell;
        T               cell;
        Cp              cell;
        kappa           cell;
        p               cell;
    }

    integrationSchemes
    {
        U               Euler;
        T               Euler;
    }
}


constantProperties
{
    rho0            8800;
    T0              300;
    Cp0             4100;
    Tref            0;
    constantVolume  false;
}


subModels
{
    particleForces
    {
        sphereDrag;
        gravity;
    }

    injectionModels
    {
        model1
        {
            type            patchInjection;
            massTotal       0; //0.007;
            SOI             0;
            parcelBasisType fixed; //mass;
            nParticle       1;
            patch           inlet;
            duration        100;
            parcelsPerSecond 1000;
            U0              (9.39 0 0);
            flowRateProfile constant 1;
            sizeDistribution
            {
                type        fixedValue;
                fixedValueDistribution
                {
            	    value    0.00007;
                }
            }
        }
    }

    dispersionModel none;

    patchInteractionModel standardWallInteraction;

    heatTransferModel none;//RanzMarshall;
    
    collisionModel none;

    compositionModel singleMixtureFraction;

    phaseChangeModel none;//liquidEvaporation;

    devolatilisationModel none;

    surfaceReactionModel none;

    stochasticCollisionModel none;

    surfaceFilmModel none;

    radiation       off;

    standardWallInteractionCoeffs
    {
        type            rebound;
    }

    RanzMarshallCoeffs
    {
        BirdCorrection  off;
    }

    singleMixtureFractionCoeffs
    {
        phases
        (
            gas
            {
            }
            liquid
            {
            }
            solid
            {
               C 1;
            }
        );
        YGasTot0        0;
        YLiquidTot0     0;
        YSolidTot0      1;
    }

    liquidEvaporationCoeffs
    {
        enthalpyTransfer enthalpyDifference; // latentHeat;
        activeLiquids   ( H2O );
    }
}


cloudFunctions
{}


// ************************************************************************* //
